Version 4
SHEET 1 880 680
WIRE 208 80 96 80
WIRE 320 80 208 80
WIRE 96 128 96 80
WIRE 320 128 320 80
WIRE 96 256 96 208
WIRE 208 256 96 256
WIRE 320 256 320 224
WIRE 320 256 208 256
WIRE 208 288 208 256
FLAG 208 80 VIN
FLAG 208 288 0
FLAG 208 256 !gnd
SYMBOL voltage 96 112 R0
WINDOW 123 0 0 Left 0
WINDOW 39 0 0 Left 0
SYMATTR InstName V1
SYMATTR Value PWL(0 0 1 1 2 -2 3 0)
SYMBOL memristor_yakopcic 320 176 R0
SYMATTR InstName U1
SYMATTR Value SRTIO3
TEXT 176 -8 Left 2 !.tran 3S
TEXT 336 120 Left 2 !.lib memristor_yakopcic.sub
