Version 4
SHEET 1 3028 760
WIRE 224 -16 80 -16
WIRE 496 -16 224 -16
WIRE 704 -16 592 -16
WIRE 816 -16 704 -16
WIRE 80 16 80 -16
WIRE 816 64 816 -16
WIRE 80 128 80 96
WIRE 816 128 816 64
WIRE 816 192 816 144
WIRE 80 256 80 208
WIRE 80 384 80 336
WIRE 816 384 816 272
WIRE 816 384 80 384
WIRE 816 432 816 384
FLAG 224 -16 PRE
FLAG 816 432 0
FLAG 704 -16 POST
SYMBOL voltage 80 112 R0
WINDOW 123 0 0 Left 0
WINDOW 39 0 0 Left 0
SYMATTR InstName V0
SYMATTR Value PULSE(0 -2 {delay_up_pre} 20m 1u 0)
SYMBOL voltage 80 240 R0
WINDOW 123 0 0 Left 0
WINDOW 39 0 0 Left 0
SYMATTR InstName V1
SYMATTR Value PULSE(0 1 {delay_down_pre} 1u 15m 0)
SYMBOL voltage 80 0 R0
WINDOW 123 0 0 Left 0
WINDOW 39 0 0 Left 0
SYMATTR InstName V4
SYMATTR Value PULSE(0 {v_read} {delay_test_pre} 1u 1u 10m 1)
SYMBOL voltage 816 48 R0
WINDOW 123 0 0 Left 0
WINDOW 39 0 0 Left 0
SYMATTR InstName V3
SYMATTR Value PULSE(0 1 {delay_down_post} 1u 15m 0)
SYMBOL voltage 816 176 R0
WINDOW 123 0 0 Left 0
WINDOW 39 0 0 Left 0
SYMATTR InstName V2
SYMATTR Value PULSE(0 -2 {delay_up_post} 20m 1u 0)
SYMBOL memristor_10um 544 -16 R270
SYMATTR InstName U1
SYMATTR Value SrTiO3
TEXT 344 -144 Left 2 !.tran 300m
TEXT 56 496 Left 2 !.param delay_up_pre=50m delay_down_pre=70m delay_test_pre=200m
TEXT 56 528 Left 2 !.param delay_up_post={{delay_up_pre}+{dT}} delay_down_post={{delay_down_pre}+{dT}}
TEXT 56 592 Left 2 !.step param dT -50m 50m 1m
TEXT 344 -120 Left 2 !.meas g FIND Ix(U1:TE)/v_read AT 206m
TEXT 424 32 Left 2 !.lib memristor_100um.sub
TEXT 56 560 Left 2 !.param v_read=0.5
