Version 4
SHEET 1 3028 680
WIRE 416 -16 80 -16
WIRE 496 -16 416 -16
WIRE 816 -16 592 -16
WIRE 80 224 80 144
WIRE 80 384 80 304
WIRE 816 384 816 -16
WIRE 816 384 80 384
WIRE 816 416 816 384
FLAG 416 -16 PRE
FLAG 816 416 0
SYMBOL memristor_yakopcic 544 -16 R270
SYMATTR InstName U1
SYMATTR Value SRTIO3
SYMBOL voltage 80 208 R0
WINDOW 123 0 0 Left 0
WINDOW 39 0 0 Left 0
SYMATTR InstName V1
SYMATTR Value PULSE(0 1.1 0 1n 1n 120)
SYMBOL voltage 80 48 R0
WINDOW 123 0 0 Left 0
WINDOW 39 0 0 Left 0
SYMATTR InstName V2
SYMATTR Value PULSE(-0.1 -4 120s .5s .5s 0 1.4s 10)
SYMBOL voltage 80 -32 R0
WINDOW 123 0 0 Left 0
WINDOW 39 0 0 Left 0
SYMATTR InstName V3
SYMATTR Value PULSE(0 0.2 135s .5s .5s 0 1.4s 10)
TEXT 344 -144 Left 2 !.tran 0 151 119 100u startup uic
TEXT 344 -120 Left 2 !.meas res param V(pre)/Ix(U1:TE) at 120s
TEXT 424 32 Left 2 !.lib memristor_yakopcic_old.sub
