Version 4
SHEET 1 880 680
WIRE 160 80 -128 80
WIRE -128 112 -128 80
WIRE 160 112 160 80
WIRE -128 240 -128 192
WIRE 16 240 -128 240
WIRE 160 240 160 208
WIRE 160 240 16 240
FLAG 16 240 0
SYMBOL memristor_yakopcic 160 160 R0
SYMATTR InstName U1
SYMATTR Value SRTIO3
SYMBOL voltage -128 96 R0
WINDOW 123 0 0 Left 0
WINDOW 39 0 0 Left 0
SYMATTR InstName V1
SYMATTR Value PWL file=PWL_2V.txt
TEXT 120 232 Left 2 !.tran 50s
TEXT 56 16 Left 2 !.lib memristor_yakopcic.sub
